*SPEF "1481-1998"
*DESIGN "uart"
*DATE "Fri Dec  1 17:27:53 2023"
*VENDOR "Synopsys, Inc."
*PROGRAM "icc2 /home/synopsys/icc2/O-2018.06-SP1/linux64/nwtn/bin/icc2_exec"
*VERSION "O-2018.06-SP1 Jul 17, 2018"
*DESIGN_FLOW "ICC2 SPEF DR"
*DIVIDER /
*DELIMITER :
*T_UNIT 1 NS
*C_UNIT 1 FF
*R_UNIT 1 OHM
*L_UNIT 1 HENRY

// XY_UNIT 1 UM
// PARASITIC_TECH tlup_min at 125.000 degree

*NAME_MAP
*1 clk
*2 reset
*3 rd_uart
*4 wr_uart
*5 rx
*6 w_data[7]
*7 w_data[6]
*8 w_data[5]
*9 w_data[4]
*10 w_data[3]
*11 w_data[2]
*12 w_data[1]
*13 w_data[0]
*14 tx_full
*15 rx_empty
*16 tx
*17 r_data[7]
*18 r_data[6]
*19 r_data[5]
*20 r_data[4]
*21 r_data[3]
*22 r_data[2]
*23 r_data[1]
*24 r_data[0]
*25 VDD
*26 VSS
*27 baud_gen_unit_r_reg_reg_7_
*28 baud_gen_unit_r_reg_reg_0_
*29 baud_gen_unit_r_reg_reg_1_
*30 baud_gen_unit_r_reg_reg_3_
*31 baud_gen_unit_r_reg_reg_4_
*32 baud_gen_unit_r_reg_reg_6_
*33 uart_rx_unit_n_reg_reg_2_
*34 uart_rx_unit_state_reg_reg_1_
*35 uart_rx_unit_s_reg_reg_0_
*36 uart_rx_unit_b_reg_reg_7_
*37 uart_rx_unit_b_reg_reg_6_
*38 uart_rx_unit_b_reg_reg_5_
*39 uart_rx_unit_b_reg_reg_4_
*40 uart_rx_unit_b_reg_reg_3_
*41 uart_rx_unit_b_reg_reg_2_
*42 uart_rx_unit_b_reg_reg_1_
*43 uart_rx_unit_b_reg_reg_0_
*44 uart_rx_unit_s_reg_reg_1_
*45 uart_rx_unit_s_reg_reg_2_
*46 uart_rx_unit_s_reg_reg_3_
*47 uart_rx_unit_n_reg_reg_0_
*48 uart_rx_unit_n_reg_reg_1_
*49 fifo_rx_unit_full_reg_reg
*50 fifo_rx_unit_w_ptr_reg_reg_0_
*51 fifo_rx_unit_w_ptr_reg_reg_1_
*52 fifo_rx_unit_r_ptr_reg_reg_1_
*53 uart_tx_unit_state_reg_reg_0_
*54 uart_tx_unit_s_reg_reg_0_
*55 uart_tx_unit_s_reg_reg_1_
*56 uart_tx_unit_s_reg_reg_2_
*57 uart_tx_unit_s_reg_reg_3_
*58 uart_tx_unit_n_reg_reg_0_
*59 uart_tx_unit_n_reg_reg_2_
*60 uart_tx_unit_b_reg_reg_7_
*61 uart_tx_unit_b_reg_reg_6_
*62 uart_tx_unit_b_reg_reg_5_
*63 uart_tx_unit_b_reg_reg_4_
*64 uart_tx_unit_b_reg_reg_3_
*65 uart_tx_unit_b_reg_reg_2_
*66 uart_tx_unit_b_reg_reg_1_
*67 uart_tx_unit_b_reg_reg_0_
*68 fifo_rx_unit_array_reg_reg_0__0_
*69 fifo_rx_unit_array_reg_reg_0__1_
*70 fifo_rx_unit_array_reg_reg_0__2_
*71 fifo_rx_unit_array_reg_reg_0__3_
*72 fifo_rx_unit_array_reg_reg_0__4_
*73 fifo_rx_unit_array_reg_reg_0__5_
*74 fifo_rx_unit_array_reg_reg_0__6_
*75 fifo_rx_unit_array_reg_reg_0__7_
*76 fifo_rx_unit_array_reg_reg_1__0_
*77 fifo_rx_unit_array_reg_reg_1__1_
*78 fifo_rx_unit_array_reg_reg_1__2_
*79 fifo_rx_unit_array_reg_reg_1__3_
*80 fifo_rx_unit_array_reg_reg_1__4_
*81 fifo_rx_unit_array_reg_reg_1__5_
*82 fifo_rx_unit_array_reg_reg_1__6_
*83 fifo_rx_unit_array_reg_reg_1__7_
*84 fifo_rx_unit_array_reg_reg_2__0_
*85 fifo_rx_unit_array_reg_reg_2__1_
*86 fifo_rx_unit_array_reg_reg_2__2_
*87 fifo_rx_unit_array_reg_reg_2__3_
*88 fifo_rx_unit_array_reg_reg_2__4_
*89 fifo_rx_unit_array_reg_reg_2__5_
*90 fifo_rx_unit_array_reg_reg_2__6_
*91 fifo_rx_unit_array_reg_reg_2__7_
*92 fifo_rx_unit_array_reg_reg_3__0_
*93 fifo_rx_unit_array_reg_reg_3__1_
*94 fifo_rx_unit_array_reg_reg_3__2_
*95 fifo_rx_unit_array_reg_reg_3__3_
*96 fifo_rx_unit_array_reg_reg_3__4_
*97 fifo_rx_unit_array_reg_reg_3__5_
*98 fifo_rx_unit_array_reg_reg_3__6_
*99 fifo_rx_unit_array_reg_reg_3__7_
*100 fifo_tx_unit_array_reg_reg_0__0_
*101 fifo_tx_unit_array_reg_reg_0__1_
*102 fifo_tx_unit_array_reg_reg_0__2_
*103 fifo_tx_unit_array_reg_reg_0__3_
*104 fifo_tx_unit_array_reg_reg_0__4_
*105 fifo_tx_unit_array_reg_reg_0__5_
*106 fifo_tx_unit_array_reg_reg_0__6_
*107 fifo_tx_unit_array_reg_reg_0__7_
*108 fifo_tx_unit_array_reg_reg_1__0_
*109 fifo_tx_unit_array_reg_reg_1__1_
*110 fifo_tx_unit_array_reg_reg_1__2_
*111 fifo_tx_unit_array_reg_reg_1__3_
*112 fifo_tx_unit_array_reg_reg_1__4_
*113 fifo_tx_unit_array_reg_reg_1__5_
*114 fifo_tx_unit_array_reg_reg_1__6_
*115 fifo_tx_unit_array_reg_reg_1__7_
*116 fifo_tx_unit_array_reg_reg_2__0_
*117 fifo_tx_unit_array_reg_reg_2__1_
*118 fifo_tx_unit_array_reg_reg_2__2_
*119 fifo_tx_unit_array_reg_reg_2__3_
*120 fifo_tx_unit_array_reg_reg_2__4_
*121 fifo_tx_unit_array_reg_reg_2__5_
*122 fifo_tx_unit_array_reg_reg_2__6_
*123 fifo_tx_unit_array_reg_reg_2__7_
*124 fifo_tx_unit_array_reg_reg_3__0_
*125 fifo_tx_unit_array_reg_reg_3__1_
*126 fifo_tx_unit_array_reg_reg_3__2_
*127 fifo_tx_unit_array_reg_reg_3__3_
*128 fifo_tx_unit_array_reg_reg_3__4_
*129 fifo_tx_unit_array_reg_reg_3__5_
*130 fifo_tx_unit_array_reg_reg_3__6_
*131 fifo_tx_unit_array_reg_reg_3__7_
*132 fifo_tx_unit_full_reg_reg
*133 fifo_rx_unit_empty_reg_reg
*134 uart_tx_unit_tx_reg_reg
*135 fifo_tx_unit_empty_reg_reg
*136 baud_gen_unit_r_reg_reg_5_
*137 uart_tx_unit_state_reg_reg_1_
*138 uart_tx_unit_n_reg_reg_1_
*139 fifo_tx_unit_w_ptr_reg_reg_0_
*140 baud_gen_unit_r_reg_reg_2_
*141 fifo_tx_unit_r_ptr_reg_reg_0_
*142 fifo_tx_unit_r_ptr_reg_reg_1_
*143 fifo_tx_unit_w_ptr_reg_reg_1_
*144 uart_rx_unit_state_reg_reg_0_
*145 fifo_rx_unit_r_ptr_reg_reg_0_
*146 U214
*147 U215
*148 U216
*149 U217
*150 U218
*151 U219
*152 U220
*153 U221
*154 U222
*155 U223
*156 copt_d_inst_1864
*157 HFSINV_371_16
*158 U226
*159 U227
*160 U228
*161 U229
*162 U230
*163 U231
*164 HFSINV_1506_17
*165 U233
*166 U234
*167 HFSINV_891_14
*168 U236
*169 U237
*170 copt_d_inst_1882
*171 U239
*172 U240
*173 U241
*174 U242
*175 U243
*176 U244
*177 U245
*178 U246
*179 U247
*180 U248
*181 U249
*182 U250
*183 U251
*184 U252
*185 U253
*186 U254
*187 HFSINV_815_21
*188 U256
*189 copt_d_inst_1896
*190 U258
*191 HFSINV_710_19
*192 HFSINV_873_20
*193 U261
*194 U262
*195 U263
*196 U264
*197 U265
*198 U266
*199 U267
*200 U268
*201 U269
*202 U270
*203 U271
*204 U272
*205 U273
*206 U274
*207 U275
*208 U276
*209 U277
*210 U278
*211 U279
*212 U280
*213 U281
*214 U282
*215 U283
*216 U284
*217 U285
*218 U286
*219 U287
*220 U288
*221 U289
*222 U290
*223 U291
*224 U292
*225 U293
*226 U294
*227 U295
*228 U296
*229 U297
*230 U298
*231 U299
*232 U300
*233 U301
*234 copt_d_inst_1872
*235 U303
*236 U304
*237 U305
*238 HFSINV_589_18
*239 U307
*240 U308
*241 U309
*242 U310
*243 U311
*244 U312
*245 U313
*246 U314
*247 U315
*248 U316
*249 U317
*250 U318
*251 U319
*252 U320
*253 U321
*254 U322
*255 U323
*256 U324
*257 U325
*258 U326
*259 U327
*260 U328
*261 U329
*262 U330
*263 U331
*264 U332
*265 U333
*266 U334
*267 U335
*268 U336
*269 U337
*270 U338
*271 U339
*272 U340
*273 U341
*274 U342
*275 U343
*276 U344
*277 U345
*278 U346
*279 U347
*280 U348
*281 U349
*282 U350
*283 U351
*284 U352
*285 U353
*286 U354
*287 U355
*288 U356
*289 U357
*290 U358
*291 U359
*292 U360
*293 U361
*294 U362
*295 U363
*296 U364
*297 U365
*298 U366
*299 U367
*300 U368
*301 U369
*302 U370
*303 U371
*304 U372
*305 U373
*306 U374
*307 U375
*308 U376
*309 U377
*310 U378
*311 U379
*312 U380
*313 U381
*314 U382
*315 U383
*316 U384
*317 U385
*318 U386
*319 U387
*320 U388
*321 U389
*322 U390
*323 U391
*324 U392
*325 U393
*326 U394
*327 U395
*328 U396
*329 U397
*330 U398
*331 U399
*332 U400
*333 U401
*334 U402
*335 U403
*336 U404
*337 U405
*338 U406
*339 U407
*340 U408
*341 U409
*342 U410
*343 U411
*344 U412
*345 U413
*346 U414
*347 HFSINV_2753_26
*348 U416
*349 U417
*350 U418
*351 U419
*352 U420
*353 U421
*354 U422
*355 U423
*356 U424
*357 U425
*358 U426
*359 U427
*360 U428
*361 U429
*362 U430
*363 U431
*364 U432
*365 U433
*366 U434
*367 U435
*368 U436
*369 U437
*370 U438
*371 U439
*372 U440
*373 U441
*374 U442
*375 U443
*376 U444
*377 U445
*378 U446
*379 U447
*380 U448
*381 U449
*382 U450
*383 U451
*384 U452
*385 U453
*386 U454
*387 U455
*388 U456
*389 U457
*390 U458
*391 U459
*392 U460
*393 U461
*394 U462
*395 U463
*396 U464
*397 U465
*398 U466
*399 U467
*400 U468
*401 U469
*402 U470
*403 U471
*404 U472
*405 U473
*406 U474
*407 U475
*408 uart_rx_unit_clk_gate_s_reg_reg/latch
*409 uart_rx_unit_clk_gate_b_reg_reg/latch
*410 uart_rx_unit_clk_gate_n_reg_reg/latch
*411 fifo_rx_unit_clk_gate_full_reg_reg/latch
*412 fifo_rx_unit_clk_gate_array_reg_reg_0_/latch
*413 fifo_rx_unit_clk_gate_array_reg_reg_1_/latch
*414 fifo_rx_unit_clk_gate_array_reg_reg_2_/latch
*415 fifo_rx_unit_clk_gate_array_reg_reg_3_/latch
*416 uart_tx_unit_clk_gate_n_reg_reg/latch
*417 uart_tx_unit_clk_gate_s_reg_reg/latch
*418 uart_tx_unit_clk_gate_b_reg_reg/latch
*419 fifo_tx_unit_clk_gate_full_reg_reg/latch
*420 fifo_tx_unit_clk_gate_array_reg_reg_0_/latch
*421 fifo_tx_unit_clk_gate_array_reg_reg_1_/latch
*422 fifo_tx_unit_clk_gate_array_reg_reg_2_/latch
*423 fifo_tx_unit_clk_gate_array_reg_reg_3_/latch
*424 copt_h_inst_797
*425 copt_d_inst_1865
*426 copt_d_inst_1866
*427 cts_inv_429457
*428 cts_inv_434462
*429 ZBUF_inst_788
*430 ZBUF_inst_789
*431 cts_inv_449477
*432 cts_inv_454482
*433 ZBUF_inst_790
*434 ZBUF_inst_791
*435 ZBUF_inst_792
*436 copt_d_inst_1867
*437 ZBUF_inst_794
*438 copt_d_inst_1868
*439 copt_d_inst_1869
*440 copt_d_inst_1870
*441 copt_d_inst_1871
*442 copt_d_inst_1873
*443 copt_d_inst_1875
*444 copt_d_inst_1876
*445 copt_d_inst_1877
*446 copt_h_inst_807
*447 copt_h_inst_808
*448 copt_h_inst_809
*449 copt_d_inst_1878
*450 copt_h_inst_811
*451 copt_h_inst_812
*452 copt_d_inst_1891
*453 copt_h_inst_814
*454 copt_h_inst_815
*455 copt_h_inst_816
*456 copt_h_inst_817
*457 copt_h_inst_818
*458 copt_h_inst_819
*459 copt_h_inst_820
*460 copt_h_inst_821
*461 copt_h_inst_822
*462 copt_h_inst_823
*463 copt_h_inst_824
*464 copt_h_inst_825
*465 copt_h_inst_826
*466 copt_d_inst_1879
*467 copt_h_inst_828
*468 copt_d_inst_1892
*469 copt_d_inst_1893
*470 copt_h_inst_831
*471 copt_h_inst_832
*472 copt_h_inst_833
*473 copt_h_inst_834
*474 copt_h_inst_835
*475 copt_h_inst_836
*476 copt_d_inst_1880
*477 copt_h_inst_838
*478 copt_h_inst_839
*479 copt_d_inst_1881
*480 copt_d_inst_1884
*481 copt_h_inst_842
*482 copt_h_inst_843
*483 copt_h_inst_844
*484 copt_h_inst_845
*485 copt_d_inst_1885
*486 copt_h_inst_847
*487 copt_h_inst_848
*488 copt_h_inst_849
*489 copt_h_inst_850
*490 copt_h_inst_851
*491 copt_h_inst_852
*492 copt_h_inst_853
*493 copt_d_inst_1886
*494 copt_h_inst_855
*495 copt_h_inst_856
*496 copt_h_inst_857
*497 copt_h_inst_858
*498 copt_h_inst_859
*499 copt_h_inst_860
*500 copt_d_inst_1887
*501 copt_d_inst_1888
*502 copt_h_inst_863
*503 copt_d_inst_1889
*504 copt_d_inst_1890
*505 copt_d_inst_1895
*506 copt_h_inst_867
*507 copt_h_inst_868
*508 copt_h_inst_869
*509 copt_h_inst_870
*510 copt_h_inst_871
*511 copt_h_inst_872
*512 copt_h_inst_873
*513 copt_h_inst_874
*514 copt_h_inst_875
*515 copt_h_inst_876
*516 copt_h_inst_877
*517 copt_h_inst_878
*518 copt_h_inst_879
*519 copt_h_inst_880
*520 copt_h_inst_881
*521 copt_h_inst_882
*522 copt_h_inst_883
*523 copt_h_inst_884
*524 copt_h_inst_885
*525 copt_d_inst_1897
*526 copt_d_inst_1898
*527 copt_h_inst_888
*528 copt_h_inst_889
*529 copt_h_inst_890
*530 copt_h_inst_891
*531 copt_h_inst_892
*532 copt_h_inst_893
*533 copt_h_inst_894
*534 copt_h_inst_895
*535 copt_h_inst_896
*536 copt_h_inst_897
*537 copt_h_inst_898
*538 copt_h_inst_899
*539 copt_h_inst_900
*540 copt_h_inst_901
*541 copt_h_inst_902
*542 copt_h_inst_903
*543 copt_h_inst_904
*544 copt_d_inst_1899
*545 copt_d_inst_1900
*546 copt_h_inst_907
*547 copt_d_inst_1901
*548 copt_d_inst_1861
*549 copt_d_inst_1902
*550 copt_d_inst_1862
*551 copt_h_inst_912
*552 copt_d_inst_1903
*553 copt_h_inst_914
*554 copt_h_inst_915
*555 copt_h_inst_916
*556 copt_h_inst_917
*557 copt_h_inst_918
*558 copt_d_inst_1860
*559 copt_h_inst_920
*560 copt_h_inst_921
*561 copt_h_inst_922
*562 copt_h_inst_923
*563 copt_h_inst_924
*564 copt_h_inst_925
*565 copt_h_inst_926
*566 copt_h_inst_927
*567 copt_d_inst_1904
*568 copt_d_inst_1905
*569 copt_h_inst_931
*570 copt_h_inst_932
*571 copt_h_inst_933
*572 copt_h_inst_934
*573 copt_h_inst_935
*574 copt_h_inst_936
*575 copt_h_inst_937
*576 copt_h_inst_938
*577 copt_h_inst_939
*578 copt_h_inst_940
*579 copt_h_inst_941
*580 copt_h_inst_942
*581 copt_h_inst_943
*582 copt_h_inst_948
*583 copt_h_inst_949
*584 copt_h_inst_950
*585 copt_h_inst_951
*586 copt_h_inst_952
*587 copt_h_inst_954
*588 copt_h_inst_955
*589 copt_h_inst_956
*590 copt_h_inst_957
*591 copt_h_inst_958
*592 copt_h_inst_959
*593 copt_h_inst_960
*594 copt_h_inst_961
*595 copt_h_inst_962
*596 copt_h_inst_963
*597 copt_h_inst_964
*598 copt_h_inst_965
*599 copt_h_inst_966
*600 copt_h_inst_967
*601 copt_h_inst_968
*602 copt_d_inst_1859
*603 copt_d_inst_1863
*604 copt_h_inst_971
*605 copt_h_inst_973
*606 copt_h_inst_975
*607 copt_h_inst_978
*608 copt_h_inst_980
*609 copt_h_inst_981
*610 copt_h_inst_982
*611 copt_h_inst_983
*612 copt_h_inst_984
*613 copt_h_inst_986
*614 copt_h_inst_987
*615 copt_h_inst_988
*616 copt_h_inst_989
*617 copt_h_inst_990
*618 copt_h_inst_991
*619 copt_h_inst_992
*620 copt_h_inst_993
*621 copt_h_inst_994
*622 copt_h_inst_995
*623 copt_h_inst_996
*624 copt_h_inst_997
*625 copt_h_inst_998
*626 copt_h_inst_999
*627 copt_h_inst_1000
*628 copt_h_inst_1001
*629 copt_h_inst_1002
*630 copt_h_inst_1004
*631 copt_h_inst_1006
*632 copt_h_inst_1007
*633 copt_h_inst_1010
*634 copt_h_inst_1011
*635 copt_h_inst_1012
*636 copt_h_inst_1018
*637 copt_h_inst_1019
*638 copt_h_inst_1020
*639 copt_h_inst_1021
*640 copt_h_inst_1022
*641 copt_h_inst_1023
*642 copt_h_inst_1024
*643 copt_h_inst_1025
*644 copt_h_inst_1026
*645 copt_h_inst_1027
*646 copt_h_inst_1028
*647 copt_h_inst_1029
*648 copt_h_inst_1030
*649 copt_h_inst_1031
*650 copt_h_inst_1032
*651 copt_h_inst_1033
*652 copt_h_inst_1035
*653 copt_h_inst_1036
*654 copt_h_inst_1037
*655 copt_h_inst_1038
*656 copt_h_inst_1039
*657 copt_h_inst_1040
*658 copt_h_inst_1041
*659 copt_h_inst_1042
*660 copt_h_inst_1044
*661 copt_h_inst_1045
*662 copt_h_inst_1046
*663 copt_h_inst_1047
*664 copt_h_inst_1048
*665 copt_h_inst_1053
*666 copt_h_inst_1054
*667 copt_h_inst_1060
*668 copt_h_inst_1062
*669 copt_h_inst_1063
*670 copt_h_inst_1065
*671 copt_h_inst_1068
*672 copt_h_inst_1069
*673 copt_h_inst_1070
*674 copt_h_inst_1071
*675 copt_h_inst_1072
*676 copt_h_inst_1073
*677 copt_h_inst_1074
*678 copt_h_inst_1075
*679 copt_h_inst_1076
*680 copt_h_inst_1077
*681 copt_h_inst_1078
*682 copt_h_inst_1079
*683 copt_h_inst_1081
*684 copt_h_inst_1082
*685 copt_h_inst_1083
*686 copt_h_inst_1084
*687 copt_h_inst_1085
*688 copt_h_inst_1086
*689 copt_h_inst_1087
*690 copt_h_inst_1088
*691 copt_h_inst_1089
*692 copt_h_inst_1090
*693 copt_h_inst_1091
*694 copt_h_inst_1092
*695 copt_h_inst_1093
*696 copt_h_inst_1094
*697 copt_h_inst_1095
*698 copt_h_inst_1096
*699 copt_h_inst_1097
*700 copt_h_inst_1098
*701 copt_h_inst_1099
*702 copt_h_inst_1100
*703 copt_h_inst_1101
*704 copt_h_inst_1102
*705 copt_h_inst_1103
*706 copt_h_inst_1104
*707 copt_h_inst_1105
*708 copt_h_inst_1106
*709 copt_h_inst_1108
*710 copt_h_inst_1111
*711 copt_h_inst_1113
*712 copt_h_inst_1114
*713 copt_h_inst_1115
*714 copt_h_inst_1116
*715 copt_h_inst_1117
*716 copt_h_inst_1119
*717 copt_h_inst_1121
*718 copt_h_inst_1122
*719 copt_h_inst_1123
*720 copt_h_inst_1124
*721 copt_h_inst_1125
*722 copt_h_inst_1126
*723 copt_h_inst_1127
*724 copt_h_inst_1128
*725 copt_h_inst_1129
*726 copt_h_inst_1130
*727 copt_h_inst_1131
*728 copt_h_inst_1132
*729 copt_h_inst_1133
*730 copt_h_inst_1134
*731 copt_h_inst_1135
*732 copt_h_inst_1136
*733 copt_h_inst_1139
*734 copt_h_inst_1142
*735 copt_h_inst_1143
*736 copt_h_inst_1144
*737 copt_h_inst_1145
*738 copt_h_inst_1146
*739 copt_h_inst_1147
*740 copt_h_inst_1148
*741 copt_h_inst_1149
*742 copt_h_inst_1150
*743 copt_h_inst_1151
*744 copt_h_inst_1152
*745 copt_h_inst_1154
*746 copt_h_inst_1155
*747 copt_h_inst_1156
*748 copt_h_inst_1160
*749 copt_h_inst_1161
*750 copt_h_inst_1164
*751 copt_h_inst_1165
*752 copt_h_inst_1166
*753 copt_h_inst_1167
*754 copt_h_inst_1168
*755 copt_h_inst_1169
*756 copt_h_inst_1179
*757 copt_h_inst_1180
*758 copt_h_inst_1181
*759 copt_h_inst_1184
*760 copt_h_inst_1185
*761 copt_h_inst_1186
*762 copt_h_inst_1187
*763 copt_h_inst_1188
*764 copt_h_inst_1189
*765 copt_h_inst_1190
*766 copt_h_inst_1191
*767 copt_h_inst_1192
*768 copt_h_inst_1193
*769 copt_h_inst_1194
*770 copt_h_inst_1195
*771 copt_h_inst_1196
*772 copt_h_inst_1201
*773 copt_h_inst_1202
*774 copt_h_inst_1204
*775 copt_h_inst_1205
*776 copt_h_inst_1206
*777 copt_h_inst_1207
*778 copt_h_inst_1208
*779 copt_h_inst_1209
*780 copt_h_inst_1210
*781 copt_h_inst_1211
*782 copt_h_inst_1212
*783 copt_h_inst_1213
*784 copt_h_inst_1214
*785 copt_h_inst_1215
*786 copt_h_inst_1216
*787 copt_h_inst_1217
*788 copt_h_inst_1218
*789 copt_h_inst_1219
*790 copt_h_inst_1220
*791 copt_h_inst_1221
*792 copt_h_inst_1222
*793 copt_h_inst_1223
*794 copt_h_inst_1224
*795 copt_h_inst_1225
*796 copt_h_inst_1226
*797 copt_h_inst_1227
*798 copt_h_inst_1228
*799 copt_h_inst_1229
*800 copt_h_inst_1230
*801 copt_h_inst_1232
*802 copt_h_inst_1233
*803 copt_h_inst_1234
*804 copt_h_inst_1235
*805 copt_h_inst_1236
*806 copt_h_inst_1239
*807 copt_h_inst_1240
*808 copt_h_inst_1242
*809 copt_h_inst_1243
*810 copt_h_inst_1245
*811 copt_h_inst_1247
*812 copt_h_inst_1248
*813 copt_h_inst_1249
*814 copt_h_inst_1250
*815 copt_h_inst_1251
*816 copt_h_inst_1261
*817 copt_h_inst_1262
*818 copt_h_inst_1263
*819 copt_h_inst_1264
*820 copt_h_inst_1265
*821 copt_h_inst_1266
*822 copt_h_inst_1267
*823 copt_h_inst_1268
*824 copt_h_inst_1269
*825 copt_h_inst_1270
*826 copt_h_inst_1275
*827 copt_h_inst_1276
*828 copt_h_inst_1278
*829 copt_h_inst_1279
*830 copt_h_inst_1280
*831 copt_h_inst_1283
*832 copt_h_inst_1284
*833 copt_h_inst_1285
*834 copt_h_inst_1287
*835 copt_h_inst_1290
*836 copt_h_inst_1291
*837 copt_h_inst_1292
*838 copt_h_inst_1293
*839 copt_h_inst_1294
*840 copt_h_inst_1297
*841 copt_h_inst_1298
*842 copt_h_inst_1299
*843 copt_h_inst_1300
*844 copt_h_inst_1301
*845 copt_h_inst_1302
*846 copt_h_inst_1303
*847 copt_h_inst_1305
*848 copt_h_inst_1306
*849 copt_h_inst_1307
*850 copt_h_inst_1308
*851 copt_h_inst_1309
*852 copt_h_inst_1310
*853 copt_h_inst_1311
*854 copt_h_inst_1312
*855 copt_h_inst_1313
*856 copt_h_inst_1314
*857 copt_h_inst_1315
*858 copt_h_inst_1316
*859 copt_h_inst_1317
*860 copt_h_inst_1319
*861 copt_h_inst_1320
*862 copt_h_inst_1321
*863 copt_h_inst_1324
*864 copt_h_inst_1325
*865 copt_h_inst_1326
*866 copt_h_inst_1327
*867 copt_h_inst_1328
*868 copt_h_inst_1329
*869 copt_h_inst_1330
*870 copt_h_inst_1333
*871 copt_h_inst_1334
*872 copt_h_inst_1335
*873 copt_h_inst_1336
*874 copt_h_inst_1337
*875 copt_h_inst_1340
*876 copt_h_inst_1341
*877 copt_h_inst_1342
*878 copt_h_inst_1343
*879 copt_h_inst_1344
*880 copt_h_inst_1345
*881 copt_h_inst_1346
*882 copt_h_inst_1347
*883 copt_h_inst_1348
*884 copt_h_inst_1349
*885 copt_h_inst_1369
*886 copt_h_inst_1370
*887 copt_h_inst_1371
*888 copt_h_inst_1372
*889 copt_h_inst_1373
*890 copt_h_inst_1375
*891 copt_h_inst_1376
*892 copt_h_inst_1377
*893 copt_h_inst_1378
*894 copt_h_inst_1379
*895 copt_h_inst_1380
*896 copt_h_inst_1381
*897 copt_h_inst_1382
*898 copt_h_inst_1383
*899 copt_h_inst_1384
*900 copt_h_inst_1385
*901 copt_h_inst_1386
*902 copt_h_inst_1388
*903 copt_h_inst_1389
*904 copt_h_inst_1390
*905 copt_h_inst_1392
*906 copt_h_inst_1399
*907 copt_h_inst_1403
*908 copt_h_inst_1404
*909 copt_h_inst_1407
*910 copt_h_inst_1408
*911 copt_h_inst_1409
*912 copt_h_inst_1411
*913 copt_h_inst_1412
*914 copt_h_inst_1413
*915 copt_h_inst_1414
*916 copt_h_inst_1415
*917 copt_h_inst_1416
*918 copt_h_inst_1420
*919 copt_h_inst_1421
*920 copt_h_inst_1424
*921 copt_h_inst_1425
*922 copt_h_inst_1428
*923 copt_h_inst_1431
*924 copt_h_inst_1434
*925 copt_h_inst_1477
*926 copt_h_inst_1479
*927 copt_h_inst_1481
*928 copt_h_inst_1482
*929 copt_h_inst_1483
*930 copt_h_inst_1489
*931 copt_h_inst_1490
*932 copt_h_inst_1494
*933 copt_h_inst_1501
*934 copt_h_inst_1502
*935 copt_h_inst_1503
*936 copt_h_inst_1506
*937 copt_h_inst_1507
*938 copt_h_inst_1508
*939 copt_h_inst_1509
*940 copt_h_inst_1510
*941 copt_h_inst_1511
*942 copt_h_inst_1512
*943 copt_h_inst_1513
*944 copt_h_inst_1519
*945 copt_h_inst_1520
*946 copt_h_inst_1521
*947 copt_h_inst_1522
*948 copt_h_inst_1523
*949 copt_h_inst_1524
*950 copt_h_inst_1525
*951 copt_h_inst_1526
*952 copt_h_inst_1527
*953 copt_h_inst_1528
*954 copt_h_inst_1530
*955 copt_h_inst_1531
*956 copt_h_inst_1534
*957 copt_h_inst_1536
*958 copt_h_inst_1537
*959 copt_h_inst_1538
*960 copt_h_inst_1541
*961 copt_h_inst_1543
*962 copt_h_inst_1545
*963 copt_h_inst_1548
*964 copt_h_inst_1549
*965 copt_h_inst_1550
*966 copt_h_inst_1551
*967 copt_h_inst_1552
*968 copt_h_inst_1553
*969 copt_h_inst_1554
*970 copt_h_inst_1555
*971 copt_h_inst_1556
*972 copt_h_inst_1557
*973 copt_h_inst_1563
*974 copt_h_inst_1564
*975 copt_h_inst_1565
*976 copt_h_inst_1566
*977 copt_h_inst_1567
*978 copt_h_inst_1568
*979 copt_h_inst_1569
*980 copt_h_inst_1570
*981 copt_h_inst_1571
*982 copt_h_inst_1572
*983 copt_h_inst_1573
*984 copt_h_inst_1574
*985 copt_h_inst_1575
*986 copt_h_inst_1576
*987 copt_h_inst_1577
*988 copt_h_inst_1586
*989 copt_h_inst_1587
*990 copt_h_inst_1588
*991 copt_h_inst_1589
*992 copt_h_inst_1590
*993 copt_h_inst_1591
*994 copt_h_inst_1594
*995 copt_h_inst_1601
*996 copt_h_inst_1602
*997 copt_h_inst_1603
*998 copt_h_inst_1604
*999 copt_h_inst_1605
*1000 copt_h_inst_1610
*1001 copt_h_inst_1611
*1002 copt_h_inst_1613
*1003 copt_h_inst_1619
*1004 copt_h_inst_1620
*1005 copt_h_inst_1621
*1006 copt_h_inst_1622
*1007 copt_h_inst_1624
*1008 copt_h_inst_1625
*1009 copt_h_inst_1626
*1010 copt_h_inst_1627
*1011 copt_h_inst_1628
*1012 copt_h_inst_1629
*1013 copt_h_inst_1630
*1014 copt_h_inst_1631
*1015 copt_h_inst_1642
*1016 copt_h_inst_1643
*1017 copt_h_inst_1644
*1018 copt_h_inst_1645
*1019 copt_h_inst_1646
*1020 copt_h_inst_1647
*1021 copt_h_inst_1648
*1022 copt_h_inst_1649
*1023 copt_h_inst_1650
*1024 copt_h_inst_1651
*1025 copt_h_inst_1652
*1026 copt_h_inst_1653
*1027 copt_h_inst_1654
*1028 copt_h_inst_1655
*1029 copt_h_inst_1656
*1030 copt_h_inst_1657
*1031 copt_h_inst_1660
*1032 copt_h_inst_1661
*1033 copt_h_inst_1662
*1034 copt_h_inst_1663
*1035 copt_h_inst_1664
*1036 copt_h_inst_1671
*1037 copt_h_inst_1672
*1038 copt_h_inst_1673
*1039 copt_h_inst_1675
*1040 copt_h_inst_1680
*1041 copt_h_inst_1681
*1042 copt_h_inst_1682
*1043 copt_h_inst_1683
*1044 copt_h_inst_1684
*1045 copt_h_inst_1685
*1046 copt_h_inst_1686
*1047 copt_h_inst_1687
*1048 copt_h_inst_1690
*1049 copt_h_inst_1691
*1050 copt_h_inst_1693
*1051 copt_h_inst_1694
*1052 copt_h_inst_1695
*1053 copt_h_inst_1696
*1054 copt_h_inst_1697
*1055 copt_h_inst_1698
*1056 copt_h_inst_1701
*1057 copt_h_inst_1702
*1058 copt_h_inst_1706
*1059 copt_h_inst_1707
*1060 copt_h_inst_1708
*1061 copt_h_inst_1709
*1062 copt_h_inst_1710
*1063 copt_h_inst_1711
*1064 copt_h_inst_1712
*1065 copt_h_inst_1713
*1066 copt_h_inst_1714
*1067 copt_h_inst_1715
*1068 copt_h_inst_1716
*1069 copt_h_inst_1717
*1070 copt_h_inst_1721
*1071 copt_h_inst_1725
*1072 copt_h_inst_1727
*1073 copt_h_inst_1728
*1074 copt_h_inst_1729
*1075 copt_h_inst_1730
*1076 copt_h_inst_1731
*1077 copt_h_inst_1732
*1078 copt_h_inst_1733
*1079 copt_h_inst_1734
*1080 copt_h_inst_1736
*1081 copt_h_inst_1737
*1082 copt_h_inst_1738
*1083 copt_h_inst_1740
*1084 copt_h_inst_1741
*1085 copt_h_inst_1742
*1086 copt_h_inst_1743
*1087 copt_h_inst_1749
*1088 copt_h_inst_1750
*1089 copt_h_inst_1751
*1090 copt_h_inst_1752
*1091 copt_h_inst_1753
*1092 copt_h_inst_1754
*1093 copt_h_inst_1756
*1094 copt_h_inst_1759
*1095 copt_h_inst_1760
*1096 copt_h_inst_1761
*1097 copt_h_inst_1762
*1098 copt_h_inst_1763
*1099 copt_h_inst_1765
*1100 copt_h_inst_1766
*1101 copt_h_inst_1767
*1102 copt_h_inst_1768
*1103 copt_h_inst_1769
*1104 copt_h_inst_1770
*1105 copt_h_inst_1771
*1106 copt_h_inst_1772
*1107 copt_h_inst_1773
*1108 copt_h_inst_1774
*1109 copt_h_inst_1775
*1110 copt_h_inst_1778
*1111 copt_h_inst_1780
*1112 copt_h_inst_1781
*1113 copt_h_inst_1782
*1114 copt_h_inst_1783
*1115 copt_h_inst_1784
*1116 copt_h_inst_1785
*1117 copt_h_inst_1787
*1118 copt_h_inst_1789
*1119 copt_h_inst_1795
*1120 copt_h_inst_1796
*1121 copt_h_inst_1797
*1122 copt_h_inst_1798
*1123 copt_h_inst_1799
*1124 copt_h_inst_1800
*1125 copt_h_inst_1803
*1126 copt_h_inst_1804
*1127 copt_h_inst_1809
*1128 copt_h_inst_1810
*1129 copt_h_inst_1815
*1130 copt_h_inst_1816
*1131 copt_h_inst_1817
*1132 copt_h_inst_1818
*1133 copt_h_inst_1819
*1134 copt_h_inst_1823
*1135 copt_h_inst_1824
*1136 copt_h_inst_1825
*1137 copt_h_inst_1826
*1138 copt_h_inst_1827
*1139 copt_h_inst_1831
*1140 copt_h_inst_1832
*1141 copt_h_inst_1833
*1142 copt_h_inst_1834
*1143 copt_h_inst_1835
*1144 copt_h_inst_1836
*1145 copt_h_inst_1837
*1146 copt_h_inst_1838
*1147 copt_h_inst_1842
*1148 copt_h_inst_1846
*1149 copt_h_inst_1848
*1150 copt_h_inst_1849
*1151 copt_h_inst_1853
*1152 copt_h_inst_1855
*1153 copt_h_inst_1856
*1154 copt_h_inst_1857
*1155 ctsbuf_net_10
*1156 aps_rename_1_
*1157 tx_empty
*1158 baud_gen_unit_n1
*1159 baud_gen_unit_n2
*1160 baud_gen_unit_n3
*1161 baud_gen_unit_n4
*1162 baud_gen_unit_n5
*1163 baud_gen_unit_n6
*1164 baud_gen_unit_n7
*1165 baud_gen_unit_n8
*1166 uart_rx_unit_net829
*1167 uart_rx_unit_net824
*1168 uart_rx_unit_net818
*1169 uart_rx_unit_N61
*1170 uart_rx_unit_N60
*1171 uart_rx_unit_N59
*1172 uart_rx_unit_N58
*1173 uart_rx_unit_N57
*1174 uart_rx_unit_N56
*1175 uart_rx_unit_N55
*1176 uart_rx_unit_N54
*1177 fifo_rx_unit_net801
*1178 fifo_rx_unit_net796
*1179 fifo_rx_unit_net791
*1180 fifo_rx_unit_net786
*1181 fifo_rx_unit_net780
*1182 fifo_rx_unit_N38
*1183 fifo_rx_unit_N20
*1184 fifo_rx_unit_N19
*1185 fifo_rx_unit_N18
*1186 fifo_rx_unit_N17
*1187 fifo_rx_unit_array_reg_3__7_
*1188 fifo_rx_unit_array_reg_3__6_
*1189 fifo_rx_unit_array_reg_3__5_
*1190 fifo_rx_unit_array_reg_3__4_
*1191 fifo_rx_unit_array_reg_3__3_
*1192 fifo_rx_unit_array_reg_3__2_
*1193 fifo_rx_unit_array_reg_3__1_
*1194 fifo_rx_unit_array_reg_3__0_
*1195 fifo_rx_unit_array_reg_2__7_
*1196 fifo_rx_unit_array_reg_2__6_
*1197 fifo_rx_unit_array_reg_2__5_
*1198 fifo_rx_unit_array_reg_2__4_
*1199 fifo_rx_unit_array_reg_2__3_
*1200 fifo_rx_unit_array_reg_2__2_
*1201 fifo_rx_unit_array_reg_2__1_
*1202 fifo_rx_unit_array_reg_2__0_
*1203 fifo_rx_unit_array_reg_1__7_
*1204 fifo_rx_unit_array_reg_1__6_
*1205 fifo_rx_unit_array_reg_1__5_
*1206 fifo_rx_unit_array_reg_1__4_
*1207 fifo_rx_unit_array_reg_1__3_
*1208 fifo_rx_unit_array_reg_1__2_
*1209 fifo_rx_unit_array_reg_1__1_
*1210 fifo_rx_unit_array_reg_1__0_
*1211 fifo_rx_unit_array_reg_0__7_
*1212 fifo_rx_unit_array_reg_0__6_
*1213 fifo_rx_unit_array_reg_0__5_
*1214 fifo_rx_unit_array_reg_0__4_
*1215 fifo_rx_unit_array_reg_0__3_
*1216 fifo_rx_unit_array_reg_0__2_
*1217 fifo_rx_unit_array_reg_0__1_
*1218 fifo_rx_unit_array_reg_0__0_
*1219 fifo_rx_unit_n1
*1220 uart_tx_unit_net725
*1221 uart_tx_unit_net720
*1222 uart_tx_unit_net714
*1223 fifo_tx_unit_net763
*1224 fifo_tx_unit_net758
*1225 fifo_tx_unit_net753
*1226 fifo_tx_unit_net748
*1227 fifo_tx_unit_net742
*1228 fifo_tx_unit_N38
*1229 fifo_tx_unit_N20
*1230 fifo_tx_unit_N19
*1231 fifo_tx_unit_N18
*1232 fifo_tx_unit_N17
*1233 fifo_tx_unit_array_reg_3__7_
*1234 fifo_tx_unit_array_reg_3__6_
*1235 fifo_tx_unit_array_reg_3__5_
*1236 fifo_tx_unit_array_reg_3__4_
*1237 fifo_tx_unit_array_reg_3__3_
*1238 fifo_tx_unit_array_reg_3__2_
*1239 fifo_tx_unit_array_reg_3__1_
*1240 fifo_tx_unit_array_reg_3__0_
*1241 fifo_tx_unit_array_reg_2__7_
*1242 fifo_tx_unit_array_reg_2__6_
*1243 fifo_tx_unit_array_reg_2__5_
*1244 fifo_tx_unit_array_reg_2__4_
*1245 fifo_tx_unit_array_reg_2__3_
*1246 fifo_tx_unit_array_reg_2__2_
*1247 fifo_tx_unit_array_reg_2__1_
*1248 fifo_tx_unit_array_reg_2__0_
*1249 fifo_tx_unit_array_reg_1__7_
*1250 fifo_tx_unit_array_reg_1__6_
*1251 fifo_tx_unit_array_reg_1__5_
*1252 fifo_tx_unit_array_reg_1__4_
*1253 fifo_tx_unit_array_reg_1__3_
*1254 fifo_tx_unit_array_reg_1__2_
*1255 fifo_tx_unit_array_reg_1__1_
*1256 fifo_tx_unit_array_reg_1__0_
*1257 fifo_tx_unit_array_reg_0__7_
*1258 fifo_tx_unit_array_reg_0__6_
*1259 fifo_tx_unit_array_reg_0__5_
*1260 fifo_tx_unit_array_reg_0__4_
*1261 fifo_tx_unit_array_reg_0__3_
*1262 fifo_tx_unit_array_reg_0__2_
*1263 fifo_tx_unit_array_reg_0__1_
*1264 fifo_tx_unit_array_reg_0__0_
*1265 n134
*1266 n135
*1267 n137
*1268 n138
*1269 n139
*1270 n140
*1271 n141
*1272 n142
*1273 n143
*1274 n144
*1275 n145
*1276 n146
*1277 n148
*1278 n149
*1279 n150
*1280 n151
*1281 n152
*1282 n153
*1283 n154
*1284 n155
*1285 n156
*1286 n157
*1287 n158
*1288 n159
*1289 n160
*1290 n161
*1291 n162
*1292 n163
*1293 n172
*1294 n173
*1295 n174
*1296 n175
*1297 n176
*1298 n177
*1299 n178
*1300 n179
*1301 n180
*1302 n181
*1303 n182
*1304 n183
*1305 n184
*1306 n185
*1307 n186
*1308 HFSNET_19
*1309 HFSNET_20
*1310 n189
*1311 n190
*1312 n191
*1313 n192
*1314 n193
*1315 n194
*1316 n195
*1317 n196
*1318 n197
*1319 n198
*1320 n199
*1321 n200
*1322 n201
*1323 n202
*1324 n203
*1325 n204
*1326 n205
*1327 n206
*1328 n207
*1329 n208
*1330 n209
*1331 n210
*1332 n211
*1333 n212
*1334 n213
*1335 n214
*1336 n215
*1337 n216
*1338 n217
*1339 HFSNET_16
*1340 n219
*1341 n220
*1342 n221
*1343 n222
*1344 n223
*1345 n224
*1346 n225
*1347 HFSNET_26
*1348 n227
*1349 n228
*1350 copt_net_1028
*1351 n230
*1352 n231
*1353 n232
*1354 n233
*1355 n234
*1356 n235
*1357 copt_net_1042
*1358 n237
*1359 n238
*1360 n239
*1361 n240
*1362 n241
*1363 n242
*1364 n243
*1365 n244
*1366 n245
*1367 n246
*1368 n247
*1369 n248
*1370 n249
*1371 n250
*1372 n251
*1373 n252
*1374 n253
*1375 n254
*1376 n255
*1377 n256
*1378 n257
*1379 n258
*1380 n259
*1381 n260
*1382 n261
*1383 n262
*1384 n263
*1385 n264
*1386 n265
*1387 n266
*1388 n267
*1389 n268
*1390 n269
*1391 n270
*1392 copt_net_1018
*1393 n272
*1394 n273
*1395 n274
*1396 n275
*1397 n276
*1398 n277
*1399 n278
*1400 n279
*1401 n280
*1402 n281
*1403 n282
*1404 n283
*1405 n284
*1406 n285
*1407 n286
*1408 n287
*1409 n288
*1410 n289
*1411 n290
*1412 n291
*1413 n292
*1414 n293
*1415 n294
*1416 n295
*1417 n296
*1418 n297
*1419 n298
*1420 n299
*1421 n300
*1422 n301
*1423 n302
*1424 n303
*1425 n304
*1426 n305
*1427 n306
*1428 n307
*1429 n308
*1430 n309
*1431 n310
*1432 n311
*1433 n312
*1434 n313
*1435 n314
*1436 n315
*1437 n316
*1438 n317
*1439 n318
*1440 n319
*1441 n320
*1442 n321
*1443 n322
*1444 n323
*1445 n324
*1446 n325
*1447 n326
*1448 n327
*1449 HFSNET_14
*1450 n329
*1451 n330
*1452 n331
*1453 n332
*1454 n333
*1455 n334
*1456 n335
*1457 n336
*1458 n337
*1459 n338
*1460 n339
*1461 n340
*1462 n341
*1463 n342
*1464 HFSNET_18
*1465 n344
*1466 n345
*1467 n346